// Generated for: spectre
// Generated on: Mar 25 15:31:30 2025
// Design library name: VCO
// Design cell name: LC_VCO
// Design view name: schematic
simulator lang=spectre
global 0 vdd!
parameters Rp=400 Q=10 vdd=1 vcont=500m Itail=800u lengthv12=2u width12=5u \
    widthv12=5u length12=50n L=3.5n C1=700f F0=3G delF=10k
include "/home/aed/cadence/dicd_source/cadence_pdk/gpdk045_v_6_0/gpdk045/../models/spectre/gpdk045.scs" section=mc

// Library name: VCO
// Cell name: LC_VCO
// View name: schematic
NM4 (Vcont Y Vcont 0) g45n1svt w=((widthv12) * (1)) l=lengthv12 nf=1 as=((widthv12) < 119.5n) ? ((((50n > (((60n) - 0) + 60n) ? 50n : (((60n) - 0) + 60n)) * 120n) + ((widthv12) * 50n)) + (floor(((1) - 1) / 2.0) * (((((60n) - 0) + 60n) * 120n) + ((widthv12) * 100n))) + ((((1) / 2) - floor((1) / 2) == 0) ? (((50n > (((60n) - 0) + 60n) ? 50n : (((60n) - 0) + 60n)) * 120n) + ((widthv12) * 50n)) : 0)) / 1 : (((100n > (((60n) - 0) + 80n) ? 100n : (((60n) - 0) + 80n)) * (widthv12)) + (floor(((1) - 1) / 2.0) * ((60n > (((60n) - 0) + 50n) ? 60n : (((60n) - 0) + 50n)) * (widthv12))) + ((((1) / 2) - floor((1) / 2) == 0) ? ((100n > (((60n) - 0) + 80n) ? 100n : (((60n) - 0) + 80n)) * (widthv12)) : 0)) / 1 \
         ad=((widthv12) < 119.5n) ? ((floor((1) / 2.0) * (((((60n) - 0) + 60n) * 120n) + ((widthv12) * 100n))) + ((((1) / 2) - floor((1) / 2) != 0) ? (((50n > (((60n) - 0) + 60n) ? 50n : (((60n) - 0) + 60n)) * 120n) + ((widthv12) * 50n)) : 0)) / 1 : ((floor((1) / 2.0) * ((60n > (((60n) - 0) + 50n) ? 60n : (((60n) - 0) + 50n)) * (widthv12))) + ((((1) / 2) - floor((1) / 2) != 0) ? ((100n > (((60n) - 0) + 80n) ? 100n : (((60n) - 0) + 80n)) * (widthv12)) : 0)) / 1 \
         ps=((widthv12) < 119.5n) ? (((2 * (50n > (((60n) - 0) + 60n) ? 50n : (((60n) - 0) + 60n))) + 340n) + (floor(((1) - 1) / 2.0) * ((2 * (((60n) - 0) + 60n)) + 440n)) + ((((1) / 2) - floor((1) / 2) == 0) ? ((2 * (50n > (((60n) - 0) + 60n) ? 50n : (((60n) - 0) + 60n))) + 340n) : 0)) / 1 : (((2 * (100n > (((60n) - 0) + 80n) ? 100n : (((60n) - 0) + 80n))) + (2 * (widthv12))) + (floor(((1) - 1) / 2.0) * ((2 * (60n > (((60n) - 0) + 50n) ? 60n : (((60n) - 0) + 50n))) + (2 * (widthv12)))) + ((((1) / 2) - floor((1) / 2) == 0) ? ((2 * (100n > (((60n) - 0) + 80n) ? 100n : (((60n) - 0) + 80n))) + (2 * (widthv12))) : 0)) / 1 \
         pd=((widthv12) < 119.5n) ? ((floor((1) / 2.0) * ((2 * (((60n) - 0) + 60n)) + 440n)) + ((((1) / 2) - floor((1) / 2) != 0) ? ((2 * (50n > (((60n) - 0) + 60n) ? 50n : (((60n) - 0) + 60n))) + 340n) : 0)) / 1 : ((floor((1) / 2.0) * ((2 * (60n > (((60n) - 0) + 50n) ? 60n : (((60n) - 0) + 50n))) + (2 * (widthv12)))) + ((((1) / 2) - floor((1) / 2) != 0) ? ((2 * (100n > (((60n) - 0) + 80n) ? 100n : (((60n) - 0) + 80n))) + (2 * (widthv12))) : 0)) / 1 \
         nrd=((widthv12) < 119.5n) ? ((floor((1) / 2.0) * (((((60n) - 0) + 60n) * 120n) + ((widthv12) * 100n))) + ((((1) / 2) - floor((1) / 2) != 0) ? (((50n > (((60n) - 0) + 60n) ? 50n : (((60n) - 0) + 60n)) * 120n) + ((widthv12) * 50n)) : 0)) / 1 : ((floor((1) / 2.0) * ((60n > (((60n) - 0) + 50n) ? 60n : (((60n) - 0) + 50n)) * (widthv12))) + ((((1) / 2) - floor((1) / 2) != 0) ? ((100n > (((60n) - 0) + 80n) ? 100n : (((60n) - 0) + 80n)) * (widthv12)) : 0)) / 1 / ((widthv12) * (1) * (widthv12) * (1)) \
         nrs=((widthv12) < 119.5n) ? ((((50n > (((60n) - 0) + 60n) ? 50n : (((60n) - 0) + 60n)) * 120n) + ((widthv12) * 50n)) + (floor(((1) - 1) / 2.0) * (((((60n) - 0) + 60n) * 120n) + ((widthv12) * 100n))) + ((((1) / 2) - floor((1) / 2) == 0) ? (((50n > (((60n) - 0) + 60n) ? 50n : (((60n) - 0) + 60n)) * 120n) + ((widthv12) * 50n)) : 0)) / 1 : (((100n > (((60n) - 0) + 80n) ? 100n : (((60n) - 0) + 80n)) * (widthv12)) + (floor(((1) - 1) / 2.0) * ((60n > (((60n) - 0) + 50n) ? 60n : (((60n) - 0) + 50n)) * (widthv12))) + ((((1) / 2) - floor((1) / 2) == 0) ? ((100n > (((60n) - 0) + 80n) ? 100n : (((60n) - 0) + 80n)) * (widthv12)) : 0)) / 1 / ((widthv12) * (1) * (widthv12) * (1)) \
         sa=((widthv12) < 119.5n) ? (50n > (((60n) - 0) + 60n) ? 50n : (((60n) - 0) + 60n)) + 5e-08 : (100n > (((60n) - 0) + 80n) ? 100n : (((60n) - 0) + 80n)) \
         sb=((widthv12) < 119.5n) ? (50n > (((60n) - 0) + 60n) ? 50n : (((60n) - 0) + 60n)) + 5e-08 : (100n > (((60n) - 0) + 80n) ? 100n : (((60n) - 0) + 80n)) \
         sd=((widthv12) < 119.5n) ? (((60n) - 0) + 60n) + (2*5e-08) : (60n > (((60n) - 0) + 50n) ? 60n : (((60n) - 0) + 50n)) \
         sca=(( (widthv12) * ( (((1u) * (1u) / (((widthv12) < 119.5n) ? (50n > (((60n) - 0) + 60n) ? 50n : (((60n) - 0) + 60n)) + 5e-08 : (100n > (((60n) - 0) + 80n) ? 100n : (((60n) - 0) + 80n))+60n)) - ((1u) * (1u) / ((((widthv12) < 119.5n) ? (50n > (((60n) - 0) + 60n) ? 50n : (((60n) - 0) + 60n)) + 5e-08 : (100n > (((60n) - 0) + 80n) ? 100n : (((60n) - 0) + 80n))+60n)+lengthv12))) + ((1u) * (1u) / (((widthv12) < 119.5n) ? (50n > (((60n) - 0) + 60n) ? 50n : (((60n) - 0) + 60n)) + 5e-08 : (100n > (((60n) - 0) + 80n) ? 100n : (((60n) - 0) + 80n))+60n)) - ((1u) * (1u)/ ((((widthv12) < 119.5n) ? (50n > (((60n) - 0) + 60n) ? 50n : (((60n) - 0) + 60n)) + 5e-08 : (100n > (((60n) - 0) + 80n) ? 100n : (((60n) - 0) + 80n))+60n)+lengthv12)))) + ( lengthv12 * ( (((1u) * (1u) / (60n)) - ((1u) * (1u) / ((60n)+(widthv12)))) + ((1u) * (1u) / (60n)) - ((1u) * (1u)/ ((60n)+(widthv12)))))) / ((widthv12) * lengthv12) \
         scb=(((widthv12) * (((((widthv12) < 119.5n) ? (50n > (((60n) - 0) + 60n) ? 50n : (((60n) - 0) + 60n)) + 5e-08 : (100n > (((60n) - 0) + 80n) ? 100n : (((60n) - 0) + 80n))+60n)/10 + (1u)/100)*exp(-10 * (((widthv12) < 119.5n) ? (50n > (((60n) - 0) + 60n) ? 50n : (((60n) - 0) + 60n)) + 5e-08 : (100n > (((60n) - 0) + 80n) ? 100n : (((60n) - 0) + 80n))+60n) / (1u)) - (((((widthv12) < 119.5n) ? (50n > (((60n) - 0) + 60n) ? 50n : (((60n) - 0) + 60n)) + 5e-08 : (100n > (((60n) - 0) + 80n) ? 100n : (((60n) - 0) + 80n))+60n)+lengthv12)/10 + (1u)/100)*exp(-10 * ((((widthv12) < 119.5n) ? (50n > (((60n) - 0) + 60n) ? 50n : (((60n) - 0) + 60n)) + 5e-08 : (100n > (((60n) - 0) + 80n) ? 100n : (((60n) - 0) + 80n))+60n)+lengthv12) / (1u)) + ((((widthv12) < 119.5n) ? (50n > (((60n) - 0) + 60n) ? 50n : (((60n) - 0) + 60n)) + 5e-08 : (100n > (((60n) - 0) + 80n) ? 100n : (((60n) - 0) + 80n))+60n)/10 + (1u)/100)*exp(-10 * (((widthv12) < 119.5n) ? (50n > (((60n) - 0) + 60n) ? 50n : (((60n) - 0) + 60n)) + 5e-08 : (100n > (((60n) - 0) + 80n) ? 100n : (((60n) - 0) + 80n))+60n) / (1u)) - (((((widthv12) < 119.5n) ? (50n > (((60n) - 0) + 60n) ? 50n : (((60n) - 0) + 60n)) + 5e-08 : (100n > (((60n) - 0) + 80n) ? 100n : (((60n) - 0) + 80n))+60n)+lengthv12)/10 + (1u)/100)*exp(-10 * ((((widthv12) < 119.5n) ? (50n > (((60n) - 0) + 60n) ? 50n : (((60n) - 0) + 60n)) + 5e-08 : (100n > (((60n) - 0) + 80n) ? 100n : (((60n) - 0) + 80n))+60n)+lengthv12) / (1u)))) + (lengthv12 * (((60n)/10 + (1u)/100)*exp(-10 * (60n) / (1u)) - (((60n)+(widthv12))/10 + (1u)/100)*exp(-10 * ((60n)+(widthv12)) / (1u)) + ((60n)/10 + (1u)/100)*exp(-10 * (60n) / (1u)) - (((60n)+(widthv12))/10 + (1u)/100)*exp(-10 * ((60n)+(widthv12)) / (1u))))) / ((widthv12) * lengthv12) \
         scc=(((widthv12) * (((((widthv12) < 119.5n) ? (50n > (((60n) - 0) + 60n) ? 50n : (((60n) - 0) + 60n)) + 5e-08 : (100n > (((60n) - 0) + 80n) ? 100n : (((60n) - 0) + 80n))+60n)/20 + (1u)/400)*exp(-20 * (((widthv12) < 119.5n) ? (50n > (((60n) - 0) + 60n) ? 50n : (((60n) - 0) + 60n)) + 5e-08 : (100n > (((60n) - 0) + 80n) ? 100n : (((60n) - 0) + 80n))+60n) / (1u)) - (((((widthv12) < 119.5n) ? (50n > (((60n) - 0) + 60n) ? 50n : (((60n) - 0) + 60n)) + 5e-08 : (100n > (((60n) - 0) + 80n) ? 100n : (((60n) - 0) + 80n))+60n)+lengthv12)/20 + (1u)/400)*exp(-20 * ((((widthv12) < 119.5n) ? (50n > (((60n) - 0) + 60n) ? 50n : (((60n) - 0) + 60n)) + 5e-08 : (100n > (((60n) - 0) + 80n) ? 100n : (((60n) - 0) + 80n))+60n)+lengthv12) / (1u)) + ((((widthv12) < 119.5n) ? (50n > (((60n) - 0) + 60n) ? 50n : (((60n) - 0) + 60n)) + 5e-08 : (100n > (((60n) - 0) + 80n) ? 100n : (((60n) - 0) + 80n))+60n)/20 + (1u)/400)*exp(-20 * (((widthv12) < 119.5n) ? (50n > (((60n) - 0) + 60n) ? 50n : (((60n) - 0) + 60n)) + 5e-08 : (100n > (((60n) - 0) + 80n) ? 100n : (((60n) - 0) + 80n))+60n) / (1u)) - (((((widthv12) < 119.5n) ? (50n > (((60n) - 0) + 60n) ? 50n : (((60n) - 0) + 60n)) + 5e-08 : (100n > (((60n) - 0) + 80n) ? 100n : (((60n) - 0) + 80n))+60n)+lengthv12)/20 + (1u)/400)*exp(-20 * ((((widthv12) < 119.5n) ? (50n > (((60n) - 0) + 60n) ? 50n : (((60n) - 0) + 60n)) + 5e-08 : (100n > (((60n) - 0) + 80n) ? 100n : (((60n) - 0) + 80n))+60n)+lengthv12) / (1u)))) + (lengthv12 * (((60n)/20 + (1u)/400)*exp(-20 * (60n) / (1u)) - (((60n)+(widthv12))/20 + (1u)/400)*exp(-20 * ((60n)+(widthv12)) / (1u)) + ((60n)/20 + (1u)/400)*exp(-20 * (60n) / (1u)) - (((60n)+(widthv12))/20 + (1u)/400)*exp(-20 * ((60n)+(widthv12)) / (1u))))) / ((widthv12) * lengthv12) \
         m=(1)
NM3 (Vcont X Vcont 0) g45n1svt w=((widthv12) * (1)) l=lengthv12 nf=1 as=((widthv12) < 119.5n) ? ((((50n > (((60n) - 0) + 60n) ? 50n : (((60n) - 0) + 60n)) * 120n) + ((widthv12) * 50n)) + (floor(((1) - 1) / 2.0) * (((((60n) - 0) + 60n) * 120n) + ((widthv12) * 100n))) + ((((1) / 2) - floor((1) / 2) == 0) ? (((50n > (((60n) - 0) + 60n) ? 50n : (((60n) - 0) + 60n)) * 120n) + ((widthv12) * 50n)) : 0)) / 1 : (((100n > (((60n) - 0) + 80n) ? 100n : (((60n) - 0) + 80n)) * (widthv12)) + (floor(((1) - 1) / 2.0) * ((60n > (((60n) - 0) + 50n) ? 60n : (((60n) - 0) + 50n)) * (widthv12))) + ((((1) / 2) - floor((1) / 2) == 0) ? ((100n > (((60n) - 0) + 80n) ? 100n : (((60n) - 0) + 80n)) * (widthv12)) : 0)) / 1 \
         ad=((widthv12) < 119.5n) ? ((floor((1) / 2.0) * (((((60n) - 0) + 60n) * 120n) + ((widthv12) * 100n))) + ((((1) / 2) - floor((1) / 2) != 0) ? (((50n > (((60n) - 0) + 60n) ? 50n : (((60n) - 0) + 60n)) * 120n) + ((widthv12) * 50n)) : 0)) / 1 : ((floor((1) / 2.0) * ((60n > (((60n) - 0) + 50n) ? 60n : (((60n) - 0) + 50n)) * (widthv12))) + ((((1) / 2) - floor((1) / 2) != 0) ? ((100n > (((60n) - 0) + 80n) ? 100n : (((60n) - 0) + 80n)) * (widthv12)) : 0)) / 1 \
         ps=((widthv12) < 119.5n) ? (((2 * (50n > (((60n) - 0) + 60n) ? 50n : (((60n) - 0) + 60n))) + 340n) + (floor(((1) - 1) / 2.0) * ((2 * (((60n) - 0) + 60n)) + 440n)) + ((((1) / 2) - floor((1) / 2) == 0) ? ((2 * (50n > (((60n) - 0) + 60n) ? 50n : (((60n) - 0) + 60n))) + 340n) : 0)) / 1 : (((2 * (100n > (((60n) - 0) + 80n) ? 100n : (((60n) - 0) + 80n))) + (2 * (widthv12))) + (floor(((1) - 1) / 2.0) * ((2 * (60n > (((60n) - 0) + 50n) ? 60n : (((60n) - 0) + 50n))) + (2 * (widthv12)))) + ((((1) / 2) - floor((1) / 2) == 0) ? ((2 * (100n > (((60n) - 0) + 80n) ? 100n : (((60n) - 0) + 80n))) + (2 * (widthv12))) : 0)) / 1 \
         pd=((widthv12) < 119.5n) ? ((floor((1) / 2.0) * ((2 * (((60n) - 0) + 60n)) + 440n)) + ((((1) / 2) - floor((1) / 2) != 0) ? ((2 * (50n > (((60n) - 0) + 60n) ? 50n : (((60n) - 0) + 60n))) + 340n) : 0)) / 1 : ((floor((1) / 2.0) * ((2 * (60n > (((60n) - 0) + 50n) ? 60n : (((60n) - 0) + 50n))) + (2 * (widthv12)))) + ((((1) / 2) - floor((1) / 2) != 0) ? ((2 * (100n > (((60n) - 0) + 80n) ? 100n : (((60n) - 0) + 80n))) + (2 * (widthv12))) : 0)) / 1 \
         nrd=((widthv12) < 119.5n) ? ((floor((1) / 2.0) * (((((60n) - 0) + 60n) * 120n) + ((widthv12) * 100n))) + ((((1) / 2) - floor((1) / 2) != 0) ? (((50n > (((60n) - 0) + 60n) ? 50n : (((60n) - 0) + 60n)) * 120n) + ((widthv12) * 50n)) : 0)) / 1 : ((floor((1) / 2.0) * ((60n > (((60n) - 0) + 50n) ? 60n : (((60n) - 0) + 50n)) * (widthv12))) + ((((1) / 2) - floor((1) / 2) != 0) ? ((100n > (((60n) - 0) + 80n) ? 100n : (((60n) - 0) + 80n)) * (widthv12)) : 0)) / 1 / ((widthv12) * (1) * (widthv12) * (1)) \
         nrs=((widthv12) < 119.5n) ? ((((50n > (((60n) - 0) + 60n) ? 50n : (((60n) - 0) + 60n)) * 120n) + ((widthv12) * 50n)) + (floor(((1) - 1) / 2.0) * (((((60n) - 0) + 60n) * 120n) + ((widthv12) * 100n))) + ((((1) / 2) - floor((1) / 2) == 0) ? (((50n > (((60n) - 0) + 60n) ? 50n : (((60n) - 0) + 60n)) * 120n) + ((widthv12) * 50n)) : 0)) / 1 : (((100n > (((60n) - 0) + 80n) ? 100n : (((60n) - 0) + 80n)) * (widthv12)) + (floor(((1) - 1) / 2.0) * ((60n > (((60n) - 0) + 50n) ? 60n : (((60n) - 0) + 50n)) * (widthv12))) + ((((1) / 2) - floor((1) / 2) == 0) ? ((100n > (((60n) - 0) + 80n) ? 100n : (((60n) - 0) + 80n)) * (widthv12)) : 0)) / 1 / ((widthv12) * (1) * (widthv12) * (1)) \
         sa=((widthv12) < 119.5n) ? (50n > (((60n) - 0) + 60n) ? 50n : (((60n) - 0) + 60n)) + 5e-08 : (100n > (((60n) - 0) + 80n) ? 100n : (((60n) - 0) + 80n)) \
         sb=((widthv12) < 119.5n) ? (50n > (((60n) - 0) + 60n) ? 50n : (((60n) - 0) + 60n)) + 5e-08 : (100n > (((60n) - 0) + 80n) ? 100n : (((60n) - 0) + 80n)) \
         sd=((widthv12) < 119.5n) ? (((60n) - 0) + 60n) + (2*5e-08) : (60n > (((60n) - 0) + 50n) ? 60n : (((60n) - 0) + 50n)) \
         sca=(( (widthv12) * ( (((1u) * (1u) / (((widthv12) < 119.5n) ? (50n > (((60n) - 0) + 60n) ? 50n : (((60n) - 0) + 60n)) + 5e-08 : (100n > (((60n) - 0) + 80n) ? 100n : (((60n) - 0) + 80n))+60n)) - ((1u) * (1u) / ((((widthv12) < 119.5n) ? (50n > (((60n) - 0) + 60n) ? 50n : (((60n) - 0) + 60n)) + 5e-08 : (100n > (((60n) - 0) + 80n) ? 100n : (((60n) - 0) + 80n))+60n)+(45n)))) + ((1u) * (1u) / (((widthv12) < 119.5n) ? (50n > (((60n) - 0) + 60n) ? 50n : (((60n) - 0) + 60n)) + 5e-08 : (100n > (((60n) - 0) + 80n) ? 100n : (((60n) - 0) + 80n))+60n)) - ((1u) * (1u)/ ((((widthv12) < 119.5n) ? (50n > (((60n) - 0) + 60n) ? 50n : (((60n) - 0) + 60n)) + 5e-08 : (100n > (((60n) - 0) + 80n) ? 100n : (((60n) - 0) + 80n))+60n)+(45n))))) + ( (45n) * ( (((1u) * (1u) / (60n)) - ((1u) * (1u) / ((60n)+(widthv12)))) + ((1u) * (1u) / (60n)) - ((1u) * (1u)/ ((60n)+(widthv12)))))) / ((widthv12) * (45n)) \
         scb=(((widthv12) * (((((widthv12) < 119.5n) ? (50n > (((60n) - 0) + 60n) ? 50n : (((60n) - 0) + 60n)) + 5e-08 : (100n > (((60n) - 0) + 80n) ? 100n : (((60n) - 0) + 80n))+60n)/10 + (1u)/100)*exp(-10 * (((widthv12) < 119.5n) ? (50n > (((60n) - 0) + 60n) ? 50n : (((60n) - 0) + 60n)) + 5e-08 : (100n > (((60n) - 0) + 80n) ? 100n : (((60n) - 0) + 80n))+60n) / (1u)) - (((((widthv12) < 119.5n) ? (50n > (((60n) - 0) + 60n) ? 50n : (((60n) - 0) + 60n)) + 5e-08 : (100n > (((60n) - 0) + 80n) ? 100n : (((60n) - 0) + 80n))+60n)+(45n))/10 + (1u)/100)*exp(-10 * ((((widthv12) < 119.5n) ? (50n > (((60n) - 0) + 60n) ? 50n : (((60n) - 0) + 60n)) + 5e-08 : (100n > (((60n) - 0) + 80n) ? 100n : (((60n) - 0) + 80n))+60n)+(45n)) / (1u)) + ((((widthv12) < 119.5n) ? (50n > (((60n) - 0) + 60n) ? 50n : (((60n) - 0) + 60n)) + 5e-08 : (100n > (((60n) - 0) + 80n) ? 100n : (((60n) - 0) + 80n))+60n)/10 + (1u)/100)*exp(-10 * (((widthv12) < 119.5n) ? (50n > (((60n) - 0) + 60n) ? 50n : (((60n) - 0) + 60n)) + 5e-08 : (100n > (((60n) - 0) + 80n) ? 100n : (((60n) - 0) + 80n))+60n) / (1u)) - (((((widthv12) < 119.5n) ? (50n > (((60n) - 0) + 60n) ? 50n : (((60n) - 0) + 60n)) + 5e-08 : (100n > (((60n) - 0) + 80n) ? 100n : (((60n) - 0) + 80n))+60n)+(45n))/10 + (1u)/100)*exp(-10 * ((((widthv12) < 119.5n) ? (50n > (((60n) - 0) + 60n) ? 50n : (((60n) - 0) + 60n)) + 5e-08 : (100n > (((60n) - 0) + 80n) ? 100n : (((60n) - 0) + 80n))+60n)+(45n)) / (1u)))) + ((45n) * (((60n)/10 + (1u)/100)*exp(-10 * (60n) / (1u)) - (((60n)+(widthv12))/10 + (1u)/100)*exp(-10 * ((60n)+(widthv12)) / (1u)) + ((60n)/10 + (1u)/100)*exp(-10 * (60n) / (1u)) - (((60n)+(widthv12))/10 + (1u)/100)*exp(-10 * ((60n)+(widthv12)) / (1u))))) / ((widthv12) * (45n)) \
         scc=(((widthv12) * (((((widthv12) < 119.5n) ? (50n > (((60n) - 0) + 60n) ? 50n : (((60n) - 0) + 60n)) + 5e-08 : (100n > (((60n) - 0) + 80n) ? 100n : (((60n) - 0) + 80n))+60n)/20 + (1u)/400)*exp(-20 * (((widthv12) < 119.5n) ? (50n > (((60n) - 0) + 60n) ? 50n : (((60n) - 0) + 60n)) + 5e-08 : (100n > (((60n) - 0) + 80n) ? 100n : (((60n) - 0) + 80n))+60n) / (1u)) - (((((widthv12) < 119.5n) ? (50n > (((60n) - 0) + 60n) ? 50n : (((60n) - 0) + 60n)) + 5e-08 : (100n > (((60n) - 0) + 80n) ? 100n : (((60n) - 0) + 80n))+60n)+(45n))/20 + (1u)/400)*exp(-20 * ((((widthv12) < 119.5n) ? (50n > (((60n) - 0) + 60n) ? 50n : (((60n) - 0) + 60n)) + 5e-08 : (100n > (((60n) - 0) + 80n) ? 100n : (((60n) - 0) + 80n))+60n)+(45n)) / (1u)) + ((((widthv12) < 119.5n) ? (50n > (((60n) - 0) + 60n) ? 50n : (((60n) - 0) + 60n)) + 5e-08 : (100n > (((60n) - 0) + 80n) ? 100n : (((60n) - 0) + 80n))+60n)/20 + (1u)/400)*exp(-20 * (((widthv12) < 119.5n) ? (50n > (((60n) - 0) + 60n) ? 50n : (((60n) - 0) + 60n)) + 5e-08 : (100n > (((60n) - 0) + 80n) ? 100n : (((60n) - 0) + 80n))+60n) / (1u)) - (((((widthv12) < 119.5n) ? (50n > (((60n) - 0) + 60n) ? 50n : (((60n) - 0) + 60n)) + 5e-08 : (100n > (((60n) - 0) + 80n) ? 100n : (((60n) - 0) + 80n))+60n)+(45n))/20 + (1u)/400)*exp(-20 * ((((widthv12) < 119.5n) ? (50n > (((60n) - 0) + 60n) ? 50n : (((60n) - 0) + 60n)) + 5e-08 : (100n > (((60n) - 0) + 80n) ? 100n : (((60n) - 0) + 80n))+60n)+(45n)) / (1u)))) + ((45n) * (((60n)/20 + (1u)/400)*exp(-20 * (60n) / (1u)) - (((60n)+(widthv12))/20 + (1u)/400)*exp(-20 * ((60n)+(widthv12)) / (1u)) + ((60n)/20 + (1u)/400)*exp(-20 * (60n) / (1u)) - (((60n)+(widthv12))/20 + (1u)/400)*exp(-20 * ((60n)+(widthv12)) / (1u))))) / ((widthv12) * (45n)) \
         m=(1)
NM1 (X Y Ibias 0) g45n1svt w=((width12) * (1)) l=length12 nf=1 as=((width12) < 119.5n) ? ((((50n > (((60n) - 0) + 60n) ? 50n : (((60n) - 0) + 60n)) * 120n) + ((width12) * 50n)) + (floor(((1) - 1) / 2.0) * (((((60n) - 0) + 60n) * 120n) + ((width12) * 100n))) + ((((1) / 2) - floor((1) / 2) == 0) ? (((50n > (((60n) - 0) + 60n) ? 50n : (((60n) - 0) + 60n)) * 120n) + ((width12) * 50n)) : 0)) / 1 : (((100n > (((60n) - 0) + 80n) ? 100n : (((60n) - 0) + 80n)) * (width12)) + (floor(((1) - 1) / 2.0) * ((60n > (((60n) - 0) + 50n) ? 60n : (((60n) - 0) + 50n)) * (width12))) + ((((1) / 2) - floor((1) / 2) == 0) ? ((100n > (((60n) - 0) + 80n) ? 100n : (((60n) - 0) + 80n)) * (width12)) : 0)) / 1 \
         ad=((width12) < 119.5n) ? ((floor((1) / 2.0) * (((((60n) - 0) + 60n) * 120n) + ((width12) * 100n))) + ((((1) / 2) - floor((1) / 2) != 0) ? (((50n > (((60n) - 0) + 60n) ? 50n : (((60n) - 0) + 60n)) * 120n) + ((width12) * 50n)) : 0)) / 1 : ((floor((1) / 2.0) * ((60n > (((60n) - 0) + 50n) ? 60n : (((60n) - 0) + 50n)) * (width12))) + ((((1) / 2) - floor((1) / 2) != 0) ? ((100n > (((60n) - 0) + 80n) ? 100n : (((60n) - 0) + 80n)) * (width12)) : 0)) / 1 \
         ps=((width12) < 119.5n) ? (((2 * (50n > (((60n) - 0) + 60n) ? 50n : (((60n) - 0) + 60n))) + 340n) + (floor(((1) - 1) / 2.0) * ((2 * (((60n) - 0) + 60n)) + 440n)) + ((((1) / 2) - floor((1) / 2) == 0) ? ((2 * (50n > (((60n) - 0) + 60n) ? 50n : (((60n) - 0) + 60n))) + 340n) : 0)) / 1 : (((2 * (100n > (((60n) - 0) + 80n) ? 100n : (((60n) - 0) + 80n))) + (2 * (width12))) + (floor(((1) - 1) / 2.0) * ((2 * (60n > (((60n) - 0) + 50n) ? 60n : (((60n) - 0) + 50n))) + (2 * (width12)))) + ((((1) / 2) - floor((1) / 2) == 0) ? ((2 * (100n > (((60n) - 0) + 80n) ? 100n : (((60n) - 0) + 80n))) + (2 * (width12))) : 0)) / 1 \
         pd=((width12) < 119.5n) ? ((floor((1) / 2.0) * ((2 * (((60n) - 0) + 60n)) + 440n)) + ((((1) / 2) - floor((1) / 2) != 0) ? ((2 * (50n > (((60n) - 0) + 60n) ? 50n : (((60n) - 0) + 60n))) + 340n) : 0)) / 1 : ((floor((1) / 2.0) * ((2 * (60n > (((60n) - 0) + 50n) ? 60n : (((60n) - 0) + 50n))) + (2 * (width12)))) + ((((1) / 2) - floor((1) / 2) != 0) ? ((2 * (100n > (((60n) - 0) + 80n) ? 100n : (((60n) - 0) + 80n))) + (2 * (width12))) : 0)) / 1 \
         nrd=((width12) < 119.5n) ? ((floor((1) / 2.0) * (((((60n) - 0) + 60n) * 120n) + ((width12) * 100n))) + ((((1) / 2) - floor((1) / 2) != 0) ? (((50n > (((60n) - 0) + 60n) ? 50n : (((60n) - 0) + 60n)) * 120n) + ((width12) * 50n)) : 0)) / 1 : ((floor((1) / 2.0) * ((60n > (((60n) - 0) + 50n) ? 60n : (((60n) - 0) + 50n)) * (width12))) + ((((1) / 2) - floor((1) / 2) != 0) ? ((100n > (((60n) - 0) + 80n) ? 100n : (((60n) - 0) + 80n)) * (width12)) : 0)) / 1 / ((width12) * (1) * (width12) * (1)) \
         nrs=((width12) < 119.5n) ? ((((50n > (((60n) - 0) + 60n) ? 50n : (((60n) - 0) + 60n)) * 120n) + ((width12) * 50n)) + (floor(((1) - 1) / 2.0) * (((((60n) - 0) + 60n) * 120n) + ((width12) * 100n))) + ((((1) / 2) - floor((1) / 2) == 0) ? (((50n > (((60n) - 0) + 60n) ? 50n : (((60n) - 0) + 60n)) * 120n) + ((width12) * 50n)) : 0)) / 1 : (((100n > (((60n) - 0) + 80n) ? 100n : (((60n) - 0) + 80n)) * (width12)) + (floor(((1) - 1) / 2.0) * ((60n > (((60n) - 0) + 50n) ? 60n : (((60n) - 0) + 50n)) * (width12))) + ((((1) / 2) - floor((1) / 2) == 0) ? ((100n > (((60n) - 0) + 80n) ? 100n : (((60n) - 0) + 80n)) * (width12)) : 0)) / 1 / ((width12) * (1) * (width12) * (1)) \
         sa=((width12) < 119.5n) ? (50n > (((60n) - 0) + 60n) ? 50n : (((60n) - 0) + 60n)) + 5e-08 : (100n > (((60n) - 0) + 80n) ? 100n : (((60n) - 0) + 80n)) \
         sb=((width12) < 119.5n) ? (50n > (((60n) - 0) + 60n) ? 50n : (((60n) - 0) + 60n)) + 5e-08 : (100n > (((60n) - 0) + 80n) ? 100n : (((60n) - 0) + 80n)) \
         sd=((width12) < 119.5n) ? (((60n) - 0) + 60n) + (2*5e-08) : (60n > (((60n) - 0) + 50n) ? 60n : (((60n) - 0) + 50n)) \
         sca=(( (width12) * ( (((1u) * (1u) / (((width12) < 119.5n) ? (50n > (((60n) - 0) + 60n) ? 50n : (((60n) - 0) + 60n)) + 5e-08 : (100n > (((60n) - 0) + 80n) ? 100n : (((60n) - 0) + 80n))+60n)) - ((1u) * (1u) / ((((width12) < 119.5n) ? (50n > (((60n) - 0) + 60n) ? 50n : (((60n) - 0) + 60n)) + 5e-08 : (100n > (((60n) - 0) + 80n) ? 100n : (((60n) - 0) + 80n))+60n)+length12))) + ((1u) * (1u) / (((width12) < 119.5n) ? (50n > (((60n) - 0) + 60n) ? 50n : (((60n) - 0) + 60n)) + 5e-08 : (100n > (((60n) - 0) + 80n) ? 100n : (((60n) - 0) + 80n))+60n)) - ((1u) * (1u)/ ((((width12) < 119.5n) ? (50n > (((60n) - 0) + 60n) ? 50n : (((60n) - 0) + 60n)) + 5e-08 : (100n > (((60n) - 0) + 80n) ? 100n : (((60n) - 0) + 80n))+60n)+length12)))) + ( length12 * ( (((1u) * (1u) / (60n)) - ((1u) * (1u) / ((60n)+(width12)))) + ((1u) * (1u) / (60n)) - ((1u) * (1u)/ ((60n)+(width12)))))) / ((width12) * length12) \
         scb=(((width12) * (((((width12) < 119.5n) ? (50n > (((60n) - 0) + 60n) ? 50n : (((60n) - 0) + 60n)) + 5e-08 : (100n > (((60n) - 0) + 80n) ? 100n : (((60n) - 0) + 80n))+60n)/10 + (1u)/100)*exp(-10 * (((width12) < 119.5n) ? (50n > (((60n) - 0) + 60n) ? 50n : (((60n) - 0) + 60n)) + 5e-08 : (100n > (((60n) - 0) + 80n) ? 100n : (((60n) - 0) + 80n))+60n) / (1u)) - (((((width12) < 119.5n) ? (50n > (((60n) - 0) + 60n) ? 50n : (((60n) - 0) + 60n)) + 5e-08 : (100n > (((60n) - 0) + 80n) ? 100n : (((60n) - 0) + 80n))+60n)+length12)/10 + (1u)/100)*exp(-10 * ((((width12) < 119.5n) ? (50n > (((60n) - 0) + 60n) ? 50n : (((60n) - 0) + 60n)) + 5e-08 : (100n > (((60n) - 0) + 80n) ? 100n : (((60n) - 0) + 80n))+60n)+length12) / (1u)) + ((((width12) < 119.5n) ? (50n > (((60n) - 0) + 60n) ? 50n : (((60n) - 0) + 60n)) + 5e-08 : (100n > (((60n) - 0) + 80n) ? 100n : (((60n) - 0) + 80n))+60n)/10 + (1u)/100)*exp(-10 * (((width12) < 119.5n) ? (50n > (((60n) - 0) + 60n) ? 50n : (((60n) - 0) + 60n)) + 5e-08 : (100n > (((60n) - 0) + 80n) ? 100n : (((60n) - 0) + 80n))+60n) / (1u)) - (((((width12) < 119.5n) ? (50n > (((60n) - 0) + 60n) ? 50n : (((60n) - 0) + 60n)) + 5e-08 : (100n > (((60n) - 0) + 80n) ? 100n : (((60n) - 0) + 80n))+60n)+length12)/10 + (1u)/100)*exp(-10 * ((((width12) < 119.5n) ? (50n > (((60n) - 0) + 60n) ? 50n : (((60n) - 0) + 60n)) + 5e-08 : (100n > (((60n) - 0) + 80n) ? 100n : (((60n) - 0) + 80n))+60n)+length12) / (1u)))) + (length12 * (((60n)/10 + (1u)/100)*exp(-10 * (60n) / (1u)) - (((60n)+(width12))/10 + (1u)/100)*exp(-10 * ((60n)+(width12)) / (1u)) + ((60n)/10 + (1u)/100)*exp(-10 * (60n) / (1u)) - (((60n)+(width12))/10 + (1u)/100)*exp(-10 * ((60n)+(width12)) / (1u))))) / ((width12) * length12) \
         scc=(((width12) * (((((width12) < 119.5n) ? (50n > (((60n) - 0) + 60n) ? 50n : (((60n) - 0) + 60n)) + 5e-08 : (100n > (((60n) - 0) + 80n) ? 100n : (((60n) - 0) + 80n))+60n)/20 + (1u)/400)*exp(-20 * (((width12) < 119.5n) ? (50n > (((60n) - 0) + 60n) ? 50n : (((60n) - 0) + 60n)) + 5e-08 : (100n > (((60n) - 0) + 80n) ? 100n : (((60n) - 0) + 80n))+60n) / (1u)) - (((((width12) < 119.5n) ? (50n > (((60n) - 0) + 60n) ? 50n : (((60n) - 0) + 60n)) + 5e-08 : (100n > (((60n) - 0) + 80n) ? 100n : (((60n) - 0) + 80n))+60n)+length12)/20 + (1u)/400)*exp(-20 * ((((width12) < 119.5n) ? (50n > (((60n) - 0) + 60n) ? 50n : (((60n) - 0) + 60n)) + 5e-08 : (100n > (((60n) - 0) + 80n) ? 100n : (((60n) - 0) + 80n))+60n)+length12) / (1u)) + ((((width12) < 119.5n) ? (50n > (((60n) - 0) + 60n) ? 50n : (((60n) - 0) + 60n)) + 5e-08 : (100n > (((60n) - 0) + 80n) ? 100n : (((60n) - 0) + 80n))+60n)/20 + (1u)/400)*exp(-20 * (((width12) < 119.5n) ? (50n > (((60n) - 0) + 60n) ? 50n : (((60n) - 0) + 60n)) + 5e-08 : (100n > (((60n) - 0) + 80n) ? 100n : (((60n) - 0) + 80n))+60n) / (1u)) - (((((width12) < 119.5n) ? (50n > (((60n) - 0) + 60n) ? 50n : (((60n) - 0) + 60n)) + 5e-08 : (100n > (((60n) - 0) + 80n) ? 100n : (((60n) - 0) + 80n))+60n)+length12)/20 + (1u)/400)*exp(-20 * ((((width12) < 119.5n) ? (50n > (((60n) - 0) + 60n) ? 50n : (((60n) - 0) + 60n)) + 5e-08 : (100n > (((60n) - 0) + 80n) ? 100n : (((60n) - 0) + 80n))+60n)+length12) / (1u)))) + (length12 * (((60n)/20 + (1u)/400)*exp(-20 * (60n) / (1u)) - (((60n)+(width12))/20 + (1u)/400)*exp(-20 * ((60n)+(width12)) / (1u)) + ((60n)/20 + (1u)/400)*exp(-20 * (60n) / (1u)) - (((60n)+(width12))/20 + (1u)/400)*exp(-20 * ((60n)+(width12)) / (1u))))) / ((width12) * length12) \
         m=(1)
NM0 (Y X Ibias 0) g45n1svt w=((width12) * (1)) l=length12 nf=1 as=((width12) < 119.5n) ? ((((50n > (((60n) - 0) + 60n) ? 50n : (((60n) - 0) + 60n)) * 120n) + ((width12) * 50n)) + (floor(((1) - 1) / 2.0) * (((((60n) - 0) + 60n) * 120n) + ((width12) * 100n))) + ((((1) / 2) - floor((1) / 2) == 0) ? (((50n > (((60n) - 0) + 60n) ? 50n : (((60n) - 0) + 60n)) * 120n) + ((width12) * 50n)) : 0)) / 1 : (((100n > (((60n) - 0) + 80n) ? 100n : (((60n) - 0) + 80n)) * (width12)) + (floor(((1) - 1) / 2.0) * ((60n > (((60n) - 0) + 50n) ? 60n : (((60n) - 0) + 50n)) * (width12))) + ((((1) / 2) - floor((1) / 2) == 0) ? ((100n > (((60n) - 0) + 80n) ? 100n : (((60n) - 0) + 80n)) * (width12)) : 0)) / 1 \
         ad=((width12) < 119.5n) ? ((floor((1) / 2.0) * (((((60n) - 0) + 60n) * 120n) + ((width12) * 100n))) + ((((1) / 2) - floor((1) / 2) != 0) ? (((50n > (((60n) - 0) + 60n) ? 50n : (((60n) - 0) + 60n)) * 120n) + ((width12) * 50n)) : 0)) / 1 : ((floor((1) / 2.0) * ((60n > (((60n) - 0) + 50n) ? 60n : (((60n) - 0) + 50n)) * (width12))) + ((((1) / 2) - floor((1) / 2) != 0) ? ((100n > (((60n) - 0) + 80n) ? 100n : (((60n) - 0) + 80n)) * (width12)) : 0)) / 1 \
         ps=((width12) < 119.5n) ? (((2 * (50n > (((60n) - 0) + 60n) ? 50n : (((60n) - 0) + 60n))) + 340n) + (floor(((1) - 1) / 2.0) * ((2 * (((60n) - 0) + 60n)) + 440n)) + ((((1) / 2) - floor((1) / 2) == 0) ? ((2 * (50n > (((60n) - 0) + 60n) ? 50n : (((60n) - 0) + 60n))) + 340n) : 0)) / 1 : (((2 * (100n > (((60n) - 0) + 80n) ? 100n : (((60n) - 0) + 80n))) + (2 * (width12))) + (floor(((1) - 1) / 2.0) * ((2 * (60n > (((60n) - 0) + 50n) ? 60n : (((60n) - 0) + 50n))) + (2 * (width12)))) + ((((1) / 2) - floor((1) / 2) == 0) ? ((2 * (100n > (((60n) - 0) + 80n) ? 100n : (((60n) - 0) + 80n))) + (2 * (width12))) : 0)) / 1 \
         pd=((width12) < 119.5n) ? ((floor((1) / 2.0) * ((2 * (((60n) - 0) + 60n)) + 440n)) + ((((1) / 2) - floor((1) / 2) != 0) ? ((2 * (50n > (((60n) - 0) + 60n) ? 50n : (((60n) - 0) + 60n))) + 340n) : 0)) / 1 : ((floor((1) / 2.0) * ((2 * (60n > (((60n) - 0) + 50n) ? 60n : (((60n) - 0) + 50n))) + (2 * (width12)))) + ((((1) / 2) - floor((1) / 2) != 0) ? ((2 * (100n > (((60n) - 0) + 80n) ? 100n : (((60n) - 0) + 80n))) + (2 * (width12))) : 0)) / 1 \
         nrd=((width12) < 119.5n) ? ((floor((1) / 2.0) * (((((60n) - 0) + 60n) * 120n) + ((width12) * 100n))) + ((((1) / 2) - floor((1) / 2) != 0) ? (((50n > (((60n) - 0) + 60n) ? 50n : (((60n) - 0) + 60n)) * 120n) + ((width12) * 50n)) : 0)) / 1 : ((floor((1) / 2.0) * ((60n > (((60n) - 0) + 50n) ? 60n : (((60n) - 0) + 50n)) * (width12))) + ((((1) / 2) - floor((1) / 2) != 0) ? ((100n > (((60n) - 0) + 80n) ? 100n : (((60n) - 0) + 80n)) * (width12)) : 0)) / 1 / ((width12) * (1) * (width12) * (1)) \
         nrs=((width12) < 119.5n) ? ((((50n > (((60n) - 0) + 60n) ? 50n : (((60n) - 0) + 60n)) * 120n) + ((width12) * 50n)) + (floor(((1) - 1) / 2.0) * (((((60n) - 0) + 60n) * 120n) + ((width12) * 100n))) + ((((1) / 2) - floor((1) / 2) == 0) ? (((50n > (((60n) - 0) + 60n) ? 50n : (((60n) - 0) + 60n)) * 120n) + ((width12) * 50n)) : 0)) / 1 : (((100n > (((60n) - 0) + 80n) ? 100n : (((60n) - 0) + 80n)) * (width12)) + (floor(((1) - 1) / 2.0) * ((60n > (((60n) - 0) + 50n) ? 60n : (((60n) - 0) + 50n)) * (width12))) + ((((1) / 2) - floor((1) / 2) == 0) ? ((100n > (((60n) - 0) + 80n) ? 100n : (((60n) - 0) + 80n)) * (width12)) : 0)) / 1 / ((width12) * (1) * (width12) * (1)) \
         sa=((width12) < 119.5n) ? (50n > (((60n) - 0) + 60n) ? 50n : (((60n) - 0) + 60n)) + 5e-08 : (100n > (((60n) - 0) + 80n) ? 100n : (((60n) - 0) + 80n)) \
         sb=((width12) < 119.5n) ? (50n > (((60n) - 0) + 60n) ? 50n : (((60n) - 0) + 60n)) + 5e-08 : (100n > (((60n) - 0) + 80n) ? 100n : (((60n) - 0) + 80n)) \
         sd=((width12) < 119.5n) ? (((60n) - 0) + 60n) + (2*5e-08) : (60n > (((60n) - 0) + 50n) ? 60n : (((60n) - 0) + 50n)) \