
// Generated for: spectre
// Generated on: Apr 24 21:11:37 2025
// Design library name: PLL_200395P
// Design cell name: PLL_200395P
// Design view name: schematic
simulator lang=spectre
global 0
parameters R=1k VCO_N=1 VCO_WP=2u VCO_WN=1u VCO_LN=45n VCO_LP=45n C1=5p \
    C2=1p
include "/home/aed/cadence/dicd_source/cadence_pdk/gpdk045_v_6_0/gpdk045/../models/spectre/gpdk045.scs" section=mc

// Library name: CHP_200395P
// Cell name: CHP_Updated_200395P
// View name: schematic
subckt CHP_Updated_200395P DN DNB ICP UP UPB VCON VDD VSS
    PM8 (net57 net32 VDD VDD) g45p1svt w=(20u) l=120n nf=10 as=1.84p \
        ad=1.6p ps=25.84u pd=21.6u nrd=4m nrs=4.6m sa=140n sb=140n sd=160n \
        sca=47.43123 scb=0.04792 scc=0.00496 m=(1)
    PM7 (net32 net32 VDD VDD) g45p1svt w=(20u) l=120n nf=10 as=1.84p \
        ad=1.6p ps=25.84u pd=21.6u nrd=4m nrs=4.6m sa=140n sb=140n sd=160n \
        sca=47.43123 scb=0.04792 scc=0.00496 m=(1)
    PM6 (VCON ICP net59 VDD) g45p1svt w=(11u) l=200n nf=10 as=1.012p \
        ad=880f ps=15.04u pd=12.6u nrd=7.27273m nrs=8.36364m sa=140n \
        sb=140n sd=160n sca=53.73563 scb=0.04741 scc=0.00523 m=(1)
    PM5 (net59 net28 VDD VDD) g45p1svt w=(11u) l=200n nf=10 as=1.012p \
        ad=880f ps=15.04u pd=12.6u nrd=7.27273m nrs=8.36364m sa=140n \
        sb=140n sd=160n sca=53.73563 scb=0.04741 scc=0.00523 m=(1)
    PM4 (net28 ICP net62 VDD) g45p1svt w=(11u) l=200n nf=10 as=1.012p \
        ad=880f ps=15.04u pd=12.6u nrd=7.27273m nrs=8.36364m sa=140n \
        sb=140n sd=160n sca=53.73563 scb=0.04741 scc=0.00523 m=(1)
    PM3 (ICP ICP VDD VDD) g45p1svt w=(4u) l=500n nf=1 as=560f ad=560f \
        ps=8.28u pd=8.28u nrd=35m nrs=35m sa=140n sb=140n sd=160n \
        sca=22.49589 scb=0.02034 scc=0.00174 m=(1)
    PM2 (net62 net28 VDD VDD) g45p1svt w=(11u) l=200n nf=10 as=1.012p \
        ad=880f ps=15.04u pd=12.6u nrd=7.27273m nrs=8.36364m sa=140n \
        sb=140n sd=160n sca=53.73563 scb=0.04741 scc=0.00523 m=(1)
    PM1 (net28 net22 VDD VDD) g45p1svt w=(500n) l=200n nf=1 as=70f ad=70f \
        ps=1.28u pd=1.28u nrd=280m nrs=280m sa=140n sb=140n sd=160n \
        sca=84.52381 scb=0.06559 scc=0.00884 m=(1)
    PM0 (net22 net22 VDD VDD) g45p1svt w=(500n) l=200n nf=1 as=70f ad=70f \
        ps=1.28u pd=1.28u nrd=280m nrs=280m sa=140n sb=140n sd=160n \
        sca=84.52381 scb=0.06559 scc=0.00884 m=(1)
    NM11 (ICP ICP VSS VSS) g45n1svt w=(2u) l=200n nf=1 as=280f ad=280f \
        ps=4.28u pd=4.28u nrd=70m nrs=70m sa=140n sb=140n sd=160n \
        sca=41.18123 scb=0.04022 scc=0.00387 m=(1)
    NM10 (ICP ICP VSS VSS) g45n1svt w=(2u) l=200n nf=1 as=280f ad=280f \
        ps=4.28u pd=4.28u nrd=70m nrs=70m sa=140n sb=140n sd=160n \
        sca=41.18123 scb=0.04022 scc=0.00387 m=(1)
    NM9 (net60 net57 VSS VSS) g45n1svt w=(10u) l=200n nf=10 as=920f \
        ad=800f ps=13.84u pd=11.6u nrd=8m nrs=9.2m sa=140n sb=140n sd=160n \
        sca=56.44654 scb=0.04900 scc=0.00553 m=(1)
    NM8 (VCON ICP net60 VSS) g45n1svt w=(10u) l=200n nf=10 as=920f ad=800f \
        ps=13.84u pd=11.6u nrd=8m nrs=9.2m sa=140n sb=140n sd=160n \
        sca=56.44654 scb=0.04900 scc=0.00553 m=(1)
    NM7 (net61 net57 VSS VSS) g45n1svt w=(10u) l=200n nf=10 as=920f \
        ad=800f ps=13.84u pd=11.6u nrd=8m nrs=9.2m sa=140n sb=140n sd=160n \
        sca=56.44654 scb=0.04900 scc=0.00553 m=(1)
    NM6 (net57 ICP net61 VSS) g45n1svt w=(10u) l=200n nf=10 as=920f \
        ad=800f ps=13.84u pd=11.6u nrd=8m nrs=9.2m sa=140n sb=140n sd=160n \
        sca=56.44654 scb=0.04900 scc=0.00553 m=(1)
    NM5 (net33 ICP VSS VSS) g45n1svt w=(2u) l=120n nf=1 as=280f ad=280f \
        ps=4.28u pd=4.28u nrd=70m nrs=70m sa=140n sb=140n sd=160n \
        sca=47.43123 scb=0.04792 scc=0.00496 m=(1)
    NM4 (net57 DNB net33 VSS) g45n1svt w=(20u) l=120n nf=10 as=1.84p \
        ad=1.6p ps=25.84u pd=21.6u nrd=4m nrs=4.6m sa=140n sb=140n sd=160n \
        sca=47.43123 scb=0.04792 scc=0.00496 m=(1)
    NM3 (net32 DN net33 VSS) g45n1svt w=(20u) l=120n nf=10 as=1.84p \
        ad=1.6p ps=25.84u pd=21.6u nrd=4m nrs=4.6m sa=140n sb=140n sd=160n \
        sca=47.43123 scb=0.04792 scc=0.00496 m=(1)
    NM2 (net24 ICP VSS VSS) g45n1svt w=(2u) l=200n nf=1 as=280f ad=280f \
        ps=4.28u pd=4.28u nrd=70m nrs=70m sa=140n sb=140n sd=160n \
        sca=41.18123 scb=0.04022 scc=0.00387 m=(1)
    NM1 (net28 UP net24 VSS) g45n1svt w=(20u) l=120n nf=10 as=1.84p \
        ad=1.6p ps=25.84u pd=21.6u nrd=4m nrs=4.6m sa=140n sb=140n sd=160n \
        sca=47.43123 scb=0.04792 scc=0.00496 m=(1)
    NM0 (net22 UPB net24 VSS) g45n1svt w=(20u) l=120n nf=10 as=1.84p \
        ad=1.6p ps=25.84u pd=21.6u nrd=4m nrs=4.6m sa=140n sb=140n sd=160n \
        sca=47.43123 scb=0.04792 scc=0.00496 m=(1)
    R0 (VCON net054) resistor r=R
    C1 (VCON VSS) capacitor c=C2
    C0 (net054 VSS) capacitor c=C1
ends CHP_Updated_200395P
// End of subcircuit definition.

// Library name: PFD_200395P
// Cell name: NAND_200395P
// View name: schematic
subckt NAND_200395P A B VDD VOUT
    PM1 (VOUT B VDD VDD) g45p1svt w=(2u) l=45n nf=1 as=280f ad=280f \
        ps=4.28u pd=4.28u nrd=70m nrs=70m sa=140n sb=140n sd=160n \
        sca=56.99756 scb=0.05691 scc=0.00695 m=(1)
    PM0 (VOUT A VDD VDD) g45p1svt w=(2u) l=45n nf=1 as=280f ad=280f \
        ps=4.28u pd=4.28u nrd=70m nrs=70m sa=140n sb=140n sd=160n \
        sca=56.99756 scb=0.05691 scc=0.00695 m=(1)
    NM1 (net21 A 0 0) g45n1svt w=(1u) l=45n nf=1 as=140f ad=140f ps=2.28u \
        pd=2.28u nrd=140m nrs=140m sa=140n sb=140n sd=160n sca=72.26287 \
        scb=0.06569 scc=0.00861 m=(1)
    NM0 (VOUT B net21 0) g45n1svt w=(1u) l=45n nf=1 as=140f ad=140f \
        ps=2.28u pd=2.28u nrd=140m nrs=140m sa=140n sb=140n sd=160n \
        sca=72.26287 scb=0.06569 scc=0.00861 m=(1)
ends NAND_200395P
// End of subcircuit definition.

// Library name: PFD_200395P
// Cell name: NAND3_20095P
// View name: schematic
subckt NAND3_20095P A B C VDD VOUT
    NM2 (net11 C 0 net8) g45n1svt w=(1u) l=45n nf=1 as=140f ad=140f \
        ps=2.28u pd=2.28u nrd=140m nrs=140m sa=140n sb=140n sd=160n \
        sca=72.26287 scb=0.06569 scc=0.00861 m=(1)
    NM1 (net12 B net11 net8) g45n1svt w=(1u) l=45n nf=1 as=140f ad=140f \
        ps=2.28u pd=2.28u nrd=140m nrs=140m sa=140n sb=140n sd=160n \
        sca=72.26287 scb=0.06569 scc=0.00861 m=(1)
    NM0 (VOUT A net12 net8) g45n1svt w=(1u) l=45n nf=1 as=140f ad=140f \
        ps=2.28u pd=2.28u nrd=140m nrs=140m sa=140n sb=140n sd=160n \
        sca=72.26287 scb=0.06569 scc=0.00861 m=(1)
    PM2 (VOUT C VDD VDD) g45p1svt w=(2u) l=45n nf=1 as=280f ad=280f \
        ps=4.28u pd=4.28u nrd=70m nrs=70m sa=140n sb=140n sd=160n \
        sca=56.99756 scb=0.05691 scc=0.00695 m=(1)
    PM1 (VOUT B VDD VDD) g45p1svt w=(2u) l=45n nf=1 as=280f ad=280f \
        ps=4.28u pd=4.28u nrd=70m nrs=70m sa=140n sb=140n sd=160n \
        sca=56.99756 scb=0.05691 scc=0.00695 m=(1)
    PM0 (VOUT A VDD VDD) g45p1svt w=(2u) l=45n nf=1 as=280f ad=280f \
        ps=4.28u pd=4.28u nrd=70m nrs=70m sa=140n sb=140n sd=160n \
        sca=56.99756 scb=0.05691 scc=0.00695 m=(1)
ends NAND3_20095P
// End of subcircuit definition.

// Library name: PFD_200395P
// Cell name: Inverter_200395P
// View name: schematic
subckt Inverter_200395P INPUT OUTPUT VDD VSS
    PM0 (OUTPUT INPUT VDD VDD) g45p1svt w=(2u) l=45n nf=1 as=280f ad=280f \
        ps=4.28u pd=4.28u nrd=70m nrs=70m sa=140n sb=140n sd=160n \
        sca=56.99756 scb=0.05691 scc=0.00695 m=(1)
    NM0 (OUTPUT INPUT VSS VSS) g45n1svt w=(1u) l=45n nf=1 as=140f ad=140f \
        ps=2.28u pd=2.28u nrd=140m nrs=140m sa=140n sb=140n sd=160n \
        sca=72.26287 scb=0.06569 scc=0.00861 m=(1)
ends Inverter_200395P
// End of subcircuit definition.

// Library name: PFD_200395P
// Cell name: PFD_New_200395P
// View name: schematic
subckt PFD_New_200395P DN DNB Ffeed Fref UP UPB VDD VSS
    I10 (net42 net41 VDD net29) NAND_200395P
    I9 (net27 net27 VDD net41) NAND_200395P
    I8 (net28 net28 VDD net42) NAND_200395P
    I7 (net38 net25 VDD net27) NAND_200395P
    I6 (net22 net23 VDD net28) NAND_200395P
    I5 (net46 DNB VDD net25) NAND_200395P
    I4 (net37 net25 VDD net38) NAND_200395P
    I3 (net29 net38 VDD net37) NAND_200395P
    I2 (net23 net29 VDD net39) NAND_200395P
    I1 (net22 net39 VDD net23) NAND_200395P
    I0 (UPB net48 VDD net22) NAND_200395P
    I12 (net29 net38 net25 VDD DNB) NAND3_20095P
    I11 (net22 net23 net29 VDD UPB) NAND3_20095P
    I17 (DNB DN VDD VSS) Inverter_200395P
    I16 (UPB UP VDD VSS) Inverter_200395P
    I14 (Ffeed net46 VDD VSS) Inverter_200395P
    I13 (Fref net48 VDD VSS) Inverter_200395P
ends PFD_New_200395P
// End of subcircuit definition.

// Library name: VCO_200395P
// Cell name: RngVCO_200395P
// View name: schematic
subckt RngVCO_200395P VCON VCO_OUT VDD VSS
    NM0 (net7 VCON VSS VSS) g45n1svt w=((VCO_WN) * (VCO_N)) l=VCO_LN \
        nf=VCO_N as=((VCO_WN) < 119.5n) ? ((((50n > (((60n) - 0) + 60n) ? 50n : (((60n) - 0) + 60n)) * 120n) + ((VCO_WN) * 50n)) + (floor(((VCO_N) - 1) / 2.0) * (((((60n) - 0) + 60n) * 120n) + ((VCO_WN) * 100n))) + ((((VCO_N) / 2) - floor((VCO_N) / 2) == 0) ? (((50n > (((60n) - 0) + 60n) ? 50n : (((60n) - 0) + 60n)) * 120n) + ((VCO_WN) * 50n)) : 0)) / 1 : (((100n > (((60n) - 0) + 80n) ? 100n : (((60n) - 0) + 80n)) * (VCO_WN)) + (floor(((VCO_N) - 1) / 2.0) * ((60n > (((60n) - 0) + 50n) ? 60n : (((60n) - 0) + 50n)) * (VCO_WN))) + ((((VCO_N) / 2) - floor((VCO_N) / 2) == 0) ? ((100n > (((60n) - 0) + 80n) ? 100n : (((60n) - 0) + 80n)) * (VCO_WN)) : 0)) / 1 \
         ad=((VCO_WN) < 119.5n) ? ((floor((VCO_N) / 2.0) * (((((60n) - 0) + 60n) * 120n) + ((VCO_WN) * 100n))) + ((((VCO_N) / 2) - floor((VCO_N) / 2) != 0) ? (((50n > (((60n) - 0) + 60n) ? 50n : (((60n) - 0) + 60n)) * 120n) + ((VCO_WN) * 50n)) : 0)) / 1 : ((floor((VCO_N) / 2.0) * ((60n > (((60n) - 0) + 50n) ? 60n : (((60n) - 0) + 50n)) * (VCO_WN))) + ((((VCO_N) / 2) - floor((VCO_N) / 2) != 0) ? ((100n > (((60n) - 0) + 80n) ? 100n : (((60n) - 0) + 80n)) * (VCO_WN)) : 0)) / 1 \
         ps=((VCO_WN) < 119.5n) ? (((2 * (50n > (((60n) - 0) + 60n) ? 50n : (((60n) - 0) + 60n))) + 340n) + (floor(((VCO_N) - 1) / 2.0) * ((2 * (((60n) - 0) + 60n)) + 440n)) + ((((VCO_N) / 2) - floor((VCO_N) / 2) == 0) ? ((2 * (50n > (((60n) - 0) + 60n) ? 50n : (((60n) - 0) + 60n))) + 340n) : 0)) / 1 : (((2 * (100n > (((60n) - 0) + 80n) ? 100n : (((60n) - 0) + 80n))) + (2 * (VCO_WN))) + (floor(((VCO_N) - 1) / 2.0) * ((2 * (60n > (((60n) - 0) + 50n) ? 60n : (((60n) - 0) + 50n))) + (2 * (VCO_WN)))) + ((((VCO_N) / 2) - floor((VCO_N) / 2) == 0) ? ((2 * (100n > (((60n) - 0) + 80n) ? 100n : (((60n) - 0) + 80n))) + (2 * (VCO_WN))) : 0)) / 1 \
         pd=((VCO_WN) < 119.5n) ? ((floor((VCO_N) / 2.0) * ((2 * (((60n) - 0) + 60n)) + 440n)) + ((((VCO_N) / 2) - floor((VCO_N) / 2) != 0) ? ((2 * (50n > (((60n) - 0) + 60n) ? 50n : (((60n) - 0) + 60n))) + 340n) : 0)) / 1 : ((floor((VCO_N) / 2.0) * ((2 * (60n > (((60n) - 0) + 50n) ? 60n : (((60n) - 0) + 50n))) + (2 * (VCO_WN)))) + ((((VCO_N) / 2) - floor((VCO_N) / 2) != 0) ? ((2 * (100n > (((60n) - 0) + 80n) ? 100n : (((60n) - 0) + 80n))) + (2 * (VCO_WN))) : 0)) / 1 \
         nrd=((VCO_WN) < 119.5n) ? ((floor((VCO_N) / 2.0) * (((((60n) - 0) + 60n) * 120n) + ((VCO_WN) * 100n))) + ((((VCO_N) / 2) - floor((VCO_N) / 2) != 0) ? (((50n > (((60n) - 0) + 60n) ? 50n : (((60n) - 0) + 60n)) * 120n) + ((VCO_WN) * 50n)) : 0)) / 1 : ((floor((VCO_N) / 2.0) * ((60n > (((60n) - 0) + 50n) ? 60n : (((60n) - 0) + 50n)) * (VCO_WN))) + ((((VCO_N) / 2) - floor((VCO_N) / 2) != 0) ? ((100n > (((60n) - 0) + 80n) ? 100n : (((60n) - 0) + 80n)) * (VCO_WN)) : 0)) / 1 / ((VCO_WN) * (VCO_N) * (VCO_WN) * (VCO_N)) \
         nrs=((VCO_WN) < 119.5n) ? ((((50n > (((60n) - 0) + 60n) ? 50n : (((60n) - 0) + 60n)) * 120n) + ((VCO_WN) * 50n)) + (floor(((VCO_N) - 1) / 2.0) * (((((60n) - 0) + 60n) * 120n) + ((VCO_WN) * 100n))) + ((((VCO_N) / 2) - floor((VCO_N) / 2) == 0) ? (((50n > (((60n) - 0) + 60n) ? 50n : (((60n) - 0) + 60n)) * 120n) + ((VCO_WN) * 50n)) : 0)) / 1 : (((100n > (((60n) - 0) + 80n) ? 100n : (((60n) - 0) + 80n)) * (VCO_WN)) + (floor(((VCO_N) - 1) / 2.0) * ((60n > (((60n) - 0) + 50n) ? 60n : (((60n) - 0) + 50n)) * (VCO_WN))) + ((((VCO_N) / 2) - floor((VCO_N) / 2) == 0) ? ((100n > (((60n) - 0) + 80n) ? 100n : (((60n) - 0) + 80n)) * (VCO_WN)) : 0)) / 1 / ((VCO_WN) * (VCO_N) * (VCO_WN) * (VCO_N)) \
         sa=((VCO_WN) < 119.5n) ? (50n > (((60n) - 0) + 60n) ? 50n : (((60n) - 0) + 60n)) + 5e-08 : (100n > (((60n) - 0) + 80n) ? 100n : (((60n) - 0) + 80n)) \
         sb=((VCO_WN) < 119.5n) ? (50n > (((60n) - 0) + 60n) ? 50n : (((60n) - 0) + 60n)) + 5e-08 : (100n > (((60n) - 0) + 80n) ? 100n : (((60n) - 0) + 80n)) \
         sd=((VCO_WN) < 119.5n) ? (((60n) - 0) + 60n) + (2*5e-08) : (60n > (((60n) - 0) + 50n) ? 60n : (((60n) - 0) + 50n)) \
         sca=(( (VCO_WN) * ( (((1u) * (1u) / (((VCO_WN) < 119.5n) ? (50n > (((60n) - 0) + 60n) ? 50n : (((60n) - 0) + 60n)) + 5e-08 : (100n > (((60n) - 0) + 80n) ? 100n : (((60n) - 0) + 80n))+60n)) - ((1u) * (1u) / ((((VCO_WN) < 119.5n) ? (50n > (((60n) - 0) + 60n) ? 50n : (((60n) - 0) + 60n)) + 5e-08 : (100n > (((60n) - 0) + 80n) ? 100n : (((60n) - 0) + 80n))+60n)+VCO_LN))) + ((1u) * (1u) / (((VCO_WN) < 119.5n) ? (50n > (((60n) - 0) + 60n) ? 50n : (((60n) - 0) + 60n)) + 5e-08 : (100n > (((60n) - 0) + 80n) ? 100n : (((60n) - 0) + 80n))+60n)) - ((1u) * (1u)/ ((((VCO_WN) < 119.5n) ? (50n > (((60n) - 0) + 60n) ? 50n : (((60n) - 0) + 60n)) + 5e-08 : (100n > (((60n) - 0) + 80n) ? 100n : (((60n) - 0) + 80n))+60n)+VCO_LN)))) + ( VCO_LN * ( (((1u) * (1u) / (60n)) - ((1u) * (1u) / ((60n)+(VCO_WN)))) + ((1u) * (1u) / (60n)) - ((1u) * (1u)/ ((60n)+(VCO_WN)))))) / ((VCO_WN) * VCO_LN) \
         scb=(((VCO_WN) * (((((VCO_WN) < 119.5n) ? (50n > (((60n) - 0) + 60n) ? 50n : (((60n) - 0) + 60n)) + 5e-08 : (100n > (((60n) - 0) + 80n) ? 100n : (((60n) - 0) + 80n))+60n)/10 + (1u)/100)*exp(-10 * (((VCO_WN) < 119.5n) ? (50n > (((60n) - 0) + 60n) ? 50n : (((60n) - 0) + 60n)) + 5e-08 : (100n > (((60n) - 0) + 80n) ? 100n : (((60n) - 0) + 80n))+60n) / (1u)) - (((((VCO_WN) < 119.5n) ? (50n > (((60n) - 0) + 60n) ? 50n : (((60n) - 0) + 60n)) + 5e-08 : (100n > (((60n) - 0) + 80n) ? 100n : (((60n) - 0) + 80n))+60n)+VCO_LN)/10 + (1u)/100)*exp(-10 * ((((VCO_WN) < 119.5n) ? (50n > (((60n) - 0) + 60n) ? 50n : (((60n) - 0) + 60n)) + 5e-08 : (100n > (((60n) - 0) + 80n) ? 100n : (((60n) - 0) + 80n))+60n)+VCO_LN) / (1u)) + ((((VCO_WN) < 119.5n) ? (50n > (((60n) - 0) + 60n) ? 50n : (((60n) - 0) + 60n)) + 5e-08 : (100n > (((60n) - 0) + 80n) ? 100n : (((60n) - 0) + 80n))+60n)/10 + (1u)/100)*exp(-10 * (((VCO_WN) < 119.5n) ? (50n > (((60n) - 0) + 60n) ? 50n : (((60n) - 0) + 60n)) + 5e-08 : (100n > (((60n) - 0) + 80n) ? 100n : (((60n) - 0) + 80n))+60n) / (1u)) - (((((VCO_WN) < 119.5n) ? (50n > (((60n) - 0) + 60n) ? 50n : (((60n) - 0) + 60n)) + 5e-08 : (100n > (((60n) - 0) + 80n) ? 100n : (((60n) - 0) + 80n))+60n)+VCO_LN)/10 + (1u)/100)*exp(-10 * ((((VCO_WN) < 119.5n) ? (50n > (((60n) - 0) + 60n) ? 50n : (((60n) - 0) + 60n)) + 5e-08 : (100n > (((60n) - 0) + 80n) ? 100n : (((60n) - 0) + 80n))+60n)+VCO_LN) / (1u)))) + (VCO_LN * (((60n)/10 + (1u)/100)*exp(-10 * (60n) / (1u)) - (((60n)+(VCO_WN))/10 + (1u)/100)*exp(-10 * ((60n)+(VCO_WN)) / (1u)) + ((60n)/10 + (1u)/100)*exp(-10 * (60n) / (1u)) - (((60n)+(VCO_WN))/10 + (1u)/100)*exp(-10 * ((60n)+(VCO_WN)) / (1u))))) / ((VCO_WN) * VCO_LN) \
         scc=(((VCO_WN) * (((((VCO_WN) < 119.5n) ? (50n > (((60n) - 0) + 60n) ? 50n : (((60n) - 0) + 60n)) + 5e-08 : (100n > (((60n) - 0) + 80n) ? 100n : (((60n) - 0) + 80n))+60n)/20 + (1u)/400)*exp(-20 * (((VCO_WN) < 119.5n) ? (50n > (((60n) - 0) + 60n) ? 50n : (((60n) - 0) + 60n)) + 5e-08 : (100n > (((60n) - 0) + 80n) ? 100n : (((60n) - 0) + 80n))+60n) / (1u)) - (((((VCO_WN) < 119.5n) ? (50n > (((60n) - 0) + 60n) ? 50n : (((60n) - 0) + 60n)) + 5e-08 : (100n > (((60n) - 0) + 80n) ? 100n : (((60n) - 0) + 80n))+60n)+VCO_LN)/20 + (1u)/400)*exp(-20 * ((((VCO_WN) < 119.5n) ? (50n > (((60n) - 0) + 60n) ? 50n : (((60n) - 0) + 60n)) + 5e-08 : (100n > (((60n) - 0) + 80n) ? 100n : (((60n) - 0) + 80n))+60n)+VCO_LN) / (1u)) + ((((VCO_WN) < 119.5n) ? (50n > (((60n) - 0) + 60n) ? 50n : (((60n) - 0) + 60n)) + 5e-08 : (100n > (((60n) - 0) + 80n) ? 100n : (((60n) - 0) + 80n))+60n)/20 + (1u)/400)*exp(-20 * (((VCO_WN) < 119.5n) ? (50n > (((60n) - 0) + 60n) ? 50n : (((60n) - 0) + 60n)) + 5e-08 : (100n > (((60n) - 0) + 80n) ? 100n : (((60n) - 0) + 80n))+60n) / (1u)) - (((((VCO_WN) < 119.5n) ? (50n > (((60n) - 0) + 60n) ? 50n : (((60n) - 0) + 60n)) + 5e-08 : (100n > (((60n) - 0) + 80n) ? 100n : (((60n) - 0) + 80n))+60n)+VCO_LN)/20 + (1u)/400)*exp(-20 * ((((VCO_WN) < 119.5n) ? (50n > (((60n) - 0) + 60n) ? 50n : (((60n) - 0) + 60n)) + 5e-08 : (100n > (((60n) - 0) + 80n) ? 100n : (((60n) - 0) + 80n))+60n)+VCO_LN) / (1u)))) + (VCO_LN * (((60n)/20 + (1u)/400)*exp(-20 * (60n) / (1u)) - (((60n)+(VCO_WN))/20 + (1u)/400)*exp(-20 * ((60n)+(VCO_WN)) / (1u)) + ((60n)/20 + (1u)/400)*exp(-20 * (60n) / (1u)) - (((60n)+(VCO_WN))/20 + (1u)/400)*exp(-20 * ((60n)+(VCO_WN)) / (1u))))) / ((VCO_WN) * VCO_LN) \
         m=(1)
    NM1 (net23 VCON VSS VSS) g45n1svt w=((VCO_WN) * (VCO_N)) l=VCO_LN \
        nf=VCO_N as=((VCO_WN) < 119.5n) ? ((((50n > (((60n) - 0) + 60n) ? 50n : (((60n) - 0) + 60n)) * 120n) + ((VCO_WN) * 50n)) + (floor(((VCO_N) - 1) / 2.0) * (((((60n) - 0) + 60n) * 120n) + ((VCO_WN) * 100n))) + ((((VCO_N) / 2) - floor((VCO_N) / 2) == 0) ? (((50n > (((60n) - 0) + 60n) ? 50n : (((60n) - 0) + 60n)) * 120n) + ((VCO_WN) * 50n)) : 0)) / 1 : (((100n > (((60n) - 0) + 80n) ? 100n : (((60n) - 0) + 80n)) * (VCO_WN)) + (floor(((VCO_N) - 1) / 2.0) * ((60n > (((60n) - 0) + 50n) ? 60n : (((60n) - 0) + 50n)) * (VCO_WN))) + ((((VCO_N) / 2) - floor((VCO_N) / 2) == 0) ? ((100n > (((60n) - 0) + 80n) ? 100n : (((60n) - 0) + 80n)) * (VCO_WN)) : 0)) / 1 \
         ad=((VCO_WN) < 119.5n) ? ((floor((VCO_N) / 2.0) * (((((60n) - 0) + 60n) * 120n) + ((VCO_WN) * 100n))) + ((((VCO_N) / 2) - floor((VCO_N) / 2) != 0) ? (((50n > (((60n) - 0) + 60n) ? 50n : (((60n) - 0) + 60n)) * 120n) + ((VCO_WN) * 50n)) : 0)) / 1 : ((floor((VCO_N) / 2.0) * ((60n > (((60n) - 0) + 50n) ? 60n : (((60n) - 0) + 50n)) * (VCO_WN))) + ((((VCO_N) / 2) - floor((VCO_N) / 2) != 0) ? ((100n > (((60n) - 0) + 80n) ? 100n : (((60n) - 0) + 80n)) * (VCO_WN)) : 0)) / 1 \
         ps=((VCO_WN) < 119.5n) ? (((2 * (50n > (((60n) - 0) + 60n) ? 50n : (((60n) - 0) + 60n))) + 340n) + (floor(((VCO_N) - 1) / 2.0) * ((2 * (((60n) - 0) + 60n)) + 440n)) + ((((VCO_N) / 2) - floor((VCO_N) / 2) == 0) ? ((2 * (50n > (((60n) - 0) + 60n) ? 50n : (((60n) - 0) + 60n))) + 340n) : 0)) / 1 : (((2 * (100n > (((60n) - 0) + 80n) ? 100n : (((60n) - 0) + 80n))) + (2 * (VCO_WN))) + (floor(((VCO_N) - 1) / 2.0) * ((2 * (60n > (((60n) - 0) + 50n) ? 60n : (((60n) - 0) + 50n))) + (2 * (VCO_WN)))) + ((((VCO_N) / 2) - floor((VCO_N) / 2) == 0) ? ((2 * (100n > (((60n) - 0) + 80n) ? 100n : (((60n) - 0) + 80n))) + (2 * (VCO_WN))) : 0)) / 1 \
         pd=((VCO_WN) < 119.5n) ? ((floor((VCO_N) / 2.0) * ((2 * (((60n) - 0) + 60n)) + 440n)) + ((((VCO_N) / 2) - floor((VCO_N) / 2) != 0) ? ((2 * (50n > (((60n) - 0) + 60n) ? 50n : (((60n) - 0) + 60n))) + 340n) : 0)) / 1 : ((floor((VCO_N) / 2.0) * ((2 * (60n > (((60n) - 0) + 50n) ? 60n : (((60n) - 0) + 50n))) + (2 * (VCO_WN)))) + ((((VCO_N) / 2) - floor((VCO_N) / 2) != 0) ? ((2 * (100n > (((60n) - 0) + 80n) ? 100n : (((60n) - 0) + 80n))) + (2 * (VCO_WN))) : 0)) / 1 \
         nrd=((VCO_WN) < 119.5n) ? ((floor((VCO_N) / 2.0) * (((((60n) - 0) + 60n) * 120n) + ((VCO_WN) * 100n))) + ((((VCO_N) / 2) - floor((VCO_N) / 2) != 0) ? (((50n > (((60n) - 0) + 60n) ? 50n : (((60n) - 0) + 60n)) * 120n) + ((VCO_WN) * 50n)) : 0)) / 1 : ((floor((VCO_N) / 2.0) * ((60n > (((60n) - 0) + 50n) ? 60n : (((60n) - 0) + 50n)) * (VCO_WN))) + ((((VCO_N) / 2) - floor((VCO_N) / 2) != 0) ? ((100n > (((60n) - 0) + 80n) ? 100n : (((60n) - 0) + 80n)) * (VCO_WN)) : 0)) / 1 / ((VCO_WN) * (VCO_N) * (VCO_WN) * (VCO_N)) \
         nrs=((VCO_WN) < 119.5n) ? ((((50n > (((60n) - 0) + 60n) ? 50n : (((60n) - 0) + 60n)) * 120n) + ((VCO_WN) * 50n)) + (floor(((VCO_N) - 1) / 2.0) * (((((60n) - 0) + 60n) * 120n) + ((VCO_WN) * 100n))) + ((((VCO_N) / 2) - floor((VCO_N) / 2) == 0) ? (((50n > (((60n) - 0) + 60n) ? 50n : (((60n) - 0) + 60n)) * 120n) + ((VCO_WN) * 50n)) : 0)) / 1 : (((100n > (((60n) - 0) + 80n) ? 100n : (((60n) - 0) + 80n)) * (VCO_WN)) + (floor(((VCO_N) - 1) / 2.0) * ((60n > (((60n) - 0) + 50n) ? 60n : (((60n) - 0) + 50n)) * (VCO_WN))) + ((((VCO_N) / 2) - floor((VCO_N) / 2) == 0) ? ((100n > (((60n) - 0) + 80n) ? 100n : (((60n) - 0) + 80n)) * (VCO_WN)) : 0)) / 1 / ((VCO_WN) * (VCO_N) * (VCO_WN) * (VCO_N)) \
         sa=((VCO_WN) < 119.5n) ? (50n > (((60n) - 0) + 60n) ? 50n : (((60n) - 0) + 60n)) + 5e-08 : (100n > (((60n) - 0) + 80n) ? 100n : (((60n) - 0) + 80n)) \
         sb=((VCO_WN) < 119.5n) ? (50n > (((60n) - 0) + 60n) ? 50n : (((60n) - 0) + 60n)) + 5e-08 : (100n > (((60n) - 0) + 80n) ? 100n : (((60n) - 0) + 80n)) \
         sd=((VCO_WN) < 119.5n) ? (((60n) - 0) + 60n) + (2*5e-08) : (60n > (((60n) - 0) + 50n) ? 60n : (((60n) - 0) + 50n)) \
         sca=(( (VCO_WN) * ( (((1u) * (1u) / (((VCO_WN) < 119.5n) ? (50n > (((60n) - 0) + 60n) ? 50n : (((60n) - 0) + 60n)) + 5e-08 : (100n > (((60n) - 0) + 80n) ? 100n : (((60n) - 0) + 80n))+60n)) - ((1u) * (1u) / ((((VCO_WN) < 119.5n) ? (50n > (((60n) - 0) + 60n) ? 50n : (((60n) - 0) + 60n)) + 5e-08 : (100n > (((60n) - 0) + 80n) ? 100n : (((60n) - 0) + 80n))+60n)+VCO_LN))) + ((1u) * (1u) / (((VCO_WN) < 119.5n) ? (50n > (((60n) - 0) + 60n) ? 50n : (((60n) - 0) + 60n)) + 5e-08 : (100n > (((60n) - 0) + 80n) ? 100n : (((60n) - 0) + 80n))+60n)) - ((1u) * (1u)/ ((((VCO_WN) < 119.5n) ? (50n > (((60n) - 0) + 60n) ? 50n : (((60n) - 0) + 60n)) + 5e-08 : (100n > (((60n) - 0) + 80n) ? 100n : (((60n) - 0) + 80n))+60n)+VCO_LN)))) + ( VCO_LN * ( (((1u) * (1u) / (60n)) - ((1u) * (1u) / ((60n)+(VCO_WN)))) + ((1u) * (1u) / (60n)) - ((1u) * (1u)/ ((60n)+(VCO_WN)))))) / ((VCO_WN) * VCO_LN) \
         scb=(((VCO_WN) * (((((VCO_WN) < 119.5n) ? (50n > (((60n) - 0) + 60n) ? 50n : (((60n) - 0) + 60n)) + 5e-08 : (100n > (((60n) - 0) + 80n) ? 100n : (((60n) - 0) + 80n))+60n)/10 + (1u)/100)*exp(-10 * (((VCO_WN) < 119.5n) ? (50n > (((60n) - 0) + 60n) ? 50n : (((60n) - 0) + 60n)) + 5e-08 : (100n > (((60n) - 0) + 80n) ? 100n : (((60n) - 0) + 80n))+60n) / (1u)) - (((((VCO_WN) < 119.5n) ? (50n > (((60n) - 0) + 60n) ? 50n : (((60n) - 0) + 60n)) + 5e-08 : (100n > (((60n) - 0) + 80n) ? 100n : (((60n) - 0) + 80n))+60n)+VCO_LN)/10 + (1u)/100)*exp(-10 * ((((VCO_WN) < 119.5n) ? (50n > (((60n) - 0) + 60n) ? 50n : (((60n) - 0) + 60n)) + 5e-08 : (100n > (((60n) - 0) + 80n) ? 100n : (((60n) - 0) + 80n))+60n)+VCO_LN) / (1u)) + ((((VCO_WN) < 119.5n) ? (50n > (((60n) - 0) + 60n) ? 50n : (((60n) - 0) + 60n)) + 5e-08 : (100n > (((60n) - 0) + 80n) ? 100n : (((60n) - 0) + 80n))+60n)/10 + (1u)/100)*exp(-10 * (((VCO_WN) < 119.5n) ? (50n > (((60n) - 0) + 60n) ? 50n : (((60n) - 0) + 60n)) + 5e-08 : (100n > (((60n) - 0) + 80n) ? 100n : (((60n) - 0) + 80n))+60n) / (1u)) - (((((VCO_WN) < 119.5n) ? (50n > (((60n) - 0) + 60n) ? 50n : (((60n) - 0) + 60n)) + 5e-08 : (100n > (((60n) - 0) + 80n) ? 100n : (((60n) - 0) + 80n))+60n)+VCO_LN)/10 + (1u)/100)*exp(-10 * ((((VCO_WN) < 119.5n) ? (50n > (((60n) - 0) + 60n) ? 50n : (((60n) - 0) + 60n)) + 5e-08 : (100n > (((60n) - 0) + 80n) ? 100n : (((60n) - 0) + 80n))+60n)+VCO_LN) / (1u)))) + (VCO_LN * (((60n)/10 + (1u)/100)*exp(-10 * (60n) / (1u)) - (((60n)+(VCO_WN))/10 + (1u)/100)*exp(-10 * ((60n)+(VCO_WN)) / (1u)) + ((60n)/10 + (1u)/100)*exp(-10 * (60n) / (1u)) - (((60n)+(VCO_WN))/10 + (1u)/100)*exp(-10 * ((60n)+(VCO_WN)) / (1u))))) / ((VCO_WN) * VCO_LN) \
         scc=(((VCO_WN) * (((((VCO_WN) < 119.5n) ? (50n > (((60n) - 0) + 60n) ? 50n : (((60n) - 0) + 60n)) + 5e-08 : (100n > (((60n) - 0) + 80n) ? 100n : (((60n) - 0) + 80n))+60n)/20 + (1u)/400)*exp(-20 * (((VCO_WN) < 119.5n) ? (50n > (((60n) - 0) + 60n) ? 50n : (((60n) - 0) + 60n)) + 5e-08 : (100n > (((60n) - 0) + 80n) ? 100n : (((60n) - 0) + 80n))+60n) / (1u)) - (((((VCO_WN) < 119.5n) ? (50n > (((60n) - 0) + 60n) ? 50n : (((60n) - 0) + 60n)) + 5e-08 : (100n > (((60n) - 0) + 80n) ? 100n : (((60n) - 0) + 80n))+60n)+VCO_LN)/20 + (1u)/400)*exp(-20 * ((((VCO_WN) < 119.5n) ? (50n > (((60n) - 0) + 60n) ? 50n : (((60n) - 0) + 60n)) + 5e-08 : (100n > (((60n) - 0) + 80n) ? 100n : (((60n) - 0) + 80n))+60n)+VCO_LN) / (1u)) + ((((VCO_WN) < 119.5n) ? (50n > (((60n) - 0) + 60n) ? 50n : (((60n) - 0) + 60n)) + 5e-08 : (100n > (((60n) - 0) + 80n) ? 100n : (((60n) - 0) + 80n))+60n)/20 + (1u)/400)*exp(-20 * (((VCO_WN) < 119.5n) ? (50n > (((60n) - 0) + 60n) ? 50n : (((60n) - 0) + 60n)) + 5e-08 : (100n > (((60n) - 0) + 80n) ? 100n : (((60n) - 0) + 80n))+60n) / (1u)) - (((((VCO_WN) < 119.5n) ? (50n > (((60n) - 0) + 60n) ? 50n : (((60n) - 0) + 60n)) + 5e-08 : (100n > (((60n) - 0) + 80n) ? 100n : (((60n) - 0) + 80n))+60n)+VCO_LN)/20 + (1u)/400)*exp(-20 * ((((VCO_WN) < 119.5n) ? (50n > (((60n) - 0) + 60n) ? 50n : (((60n) - 0) + 60n)) + 5e-08 : (100n > (((60n) - 0) + 80n) ? 100n : (((60n) - 0) + 80n))+60n)+VCO_LN) / (1u)))) + (VCO_LN * (((60n)/20 + (1u)/400)*exp(-20 * (60n) / (1u)) - (((60n)+(VCO_WN))/20 + (1u)/400)*exp(-20 * ((60n)+(VCO_WN)) / (1u)) + ((60n)/20 + (1u)/400)*exp(-20 * (60n) / (1u)) - (((60n)+(VCO_WN))/20 + (1u)/400)*exp(-20 * ((60n)+(VCO_WN)) / (1u))))) / ((VCO_WN) * VCO_LN) \
         m=(1)
    NM2 (net22 VCON VSS VSS) g45n1svt w=((VCO_WN) * (VCO_N)) l=VCO_LN \
        nf=VCO_N as=((VCO_WN) < 119.5n) ? ((((50n > (((60n) - 0) + 60n) ? 50n : (((60n) - 0) + 60n)) * 120n) + ((VCO_WN) * 50n)) + (floor(((VCO_N) - 1) / 2.0) * (((((60n) - 0) + 60n) * 120n) + ((VCO_WN) * 100n))) + ((((VCO_N) / 2) - floor((VCO_N) / 2) == 0) ? (((50n > (((60n) - 0) + 60n) ? 50n : (((60n) - 0) + 60n)) * 120n) + ((VCO_WN) * 50n)) : 0)) / 1 : (((100n > (((60n) - 0) + 80n) ? 100n : (((60n) - 0) + 80n)) * (VCO_WN)) + (floor(((VCO_N) - 1) / 2.0) * ((60n > (((60n) - 0) + 50n) ? 60n : (((60n) - 0) + 50n)) * (VCO_WN))) + ((((VCO_N) / 2) - floor((VCO_N) / 2) == 0) ? ((100n > (((60n) - 0) + 80n) ? 100n : (((60n) - 0) + 80n)) * (VCO_WN)) : 0)) / 1 \
         ad=((VCO_WN) < 119.5n) ? ((floor((VCO_N) / 2.0) * (((((60n) - 0) + 60n) * 120n) + ((VCO_WN) * 100n))) + ((((VCO_N) / 2) - floor((VCO_N) / 2) != 0) ? (((50n > (((60n) - 0) + 60n) ? 50n : (((60n) - 0) + 60n)) * 120n) + ((VCO_WN) * 50n)) : 0)) / 1 : ((floor((VCO_N) / 2.0) * ((60n > (((60n) - 0) + 50n) ? 60n : (((60n) - 0) + 50n)) * (VCO_WN))) + ((((VCO_N) / 2) - floor((VCO_N) / 2) != 0) ? ((100n > (((60n) - 0) + 80n) ? 100n : (((60n) - 0) + 80n)) * (VCO_WN)) : 0)) / 1 \
         ps=((VCO_WN) < 119.5n) ? (((2 * (50n > (((60n) - 0) + 60n) ? 50n : (((60n) - 0) + 60n))) + 340n) + (floor(((VCO_N) - 1) / 2.0) * ((2 * (((60n) - 0) + 60n)) + 440n)) + ((((VCO_N) / 2) - floor((VCO_N) / 2) == 0) ? ((2 * (50n > (((60n) - 0) + 60n) ? 50n : (((60n) - 0) + 60n))) + 340n) : 0)) / 1 : (((2 * (100n > (((60n) - 0) + 80n) ? 100n : (((60n) - 0) + 80n))) + (2 * (VCO_WN))) + (floor(((VCO_N) - 1) / 2.0) * ((2 * (60n > (((60n) - 0) + 50n) ? 60n : (((60n) - 0) + 50n))) + (2 * (VCO_WN)))) + ((((VCO_N) / 2) - floor((VCO_N) / 2) == 0) ? ((2 * (100n > (((60n) - 0) + 80n) ? 100n : (((60n) - 0) + 80n))) + (2 * (VCO_WN))) : 0)) / 1 \
         pd=((VCO_WN) < 119.5n) ? ((floor((VCO_N) / 2.0) * ((2 * (((60n) - 0) + 60n)) + 440n)) + ((((VCO_N) / 2) - floor((VCO_N) / 2) != 0) ? ((2 * (50n > (((60n) - 0) + 60n) ? 50n : (((60n) - 0) + 60n))) + 340n) : 0)) / 1 : ((floor((VCO_N) / 2.0) * ((2 * (60n > (((60n) - 0) + 50n) ? 60n : (((60n) - 0) + 50n))) + (2 * (VCO_WN)))) + ((((VCO_N) / 2) - floor((VCO_N) / 2) != 0) ? ((2 * (100n > (((60n) - 0) + 80n) ? 100n : (((60n) - 0) + 80n))) + (2 * (VCO_WN))) : 0)) / 1 \
         nrd=((VCO_WN) < 119.5n) ? ((floor((VCO_N) / 2.0) * (((((60n) - 0) + 60n) * 120n) + ((VCO_WN) * 100n))) + ((((VCO_N) / 2) - floor((VCO_N) / 2) != 0) ? (((50n > (((60n) - 0) + 60n) ? 50n : (((60n) - 0) + 60n)) * 120n) + ((VCO_WN) * 50n)) : 0)) / 1 : ((floor((VCO_N) / 2.0) * ((60n > (((60n) - 0) + 50n) ? 60n : (((60n) - 0) + 50n)) * (VCO_WN))) + ((((VCO_N) / 2) - floor((VCO_N) / 2) != 0) ? ((100n > (((60n) - 0) + 80n) ? 100n : (((60n) - 0) + 80n)) * (VCO_WN)) : 0)) / 1 / ((VCO_WN) * (VCO_N) * (VCO_WN) * (VCO_N)) \
         nrs=((VCO_WN) < 119.5n) ? ((((50n > (((60n) - 0) + 60n) ? 50n : (((60n) - 0) + 60n)) * 120n) + ((VCO_WN) * 50n)) + (floor(((VCO_N) - 1) / 2.0) * (((((60n) - 0) + 60n) * 120n) + ((VCO_WN) * 100n))) + ((((VCO_N) / 2) - floor((VCO_N) / 2) == 0) ? (((50n > (((60n) - 0) + 60n) ? 50n : (((60n) - 0) + 60n)) * 120n) + ((VCO_WN) * 50n)) : 0)) / 1 : (((100n > (((60n) - 0) + 80n) ? 100n : (((60n) - 0) + 80n)) * (VCO_WN)) + (floor(((VCO_N) - 1) / 2.0) * ((60n > (((60n) - 0) + 50n) ? 60n : (((60n) - 0) + 50n)) * (VCO_WN))) + ((((VCO_N) / 2) - floor((VCO_N) / 2) == 0) ? ((100n > (((60n) - 0) + 80n) ? 100n : (((60n) - 0) + 80n)) * (VCO_WN)) : 0)) / 1 / ((VCO_WN) * (VCO_N) * (VCO_WN) * (VCO_N)) \
         sa=((VCO_WN) < 119.5n) ? (50n > (((60n) - 0) + 60n) ? 50n : (((60n) - 0) + 60n)) + 5e-08 : (100n > (((60n) - 0) + 80n) ? 100n : (((60n) - 0) + 80n)) \
         sb=((VCO_WN) < 119.5n) ? (50n > (((60n) - 0) + 60n) ? 50n : (((60n) - 0) + 60n)) + 5e-08 : (100n > (((60n) - 0) + 80n) ? 100n : (((60n) - 0) + 80n)) \
         sd=((VCO_WN) < 119.5n) ? (((60n) - 0) + 60n) + (2*5e-08) : (60n > (((60n) - 0) + 50n) ? 60n : (((60n) - 0) + 50n)) \